  Page 1                                             17-02-2014 23:18:05
  **********************************************************************
  *                             E P A N E T                            *
  *                     Hydraulic and Water Quality                    *
  *                     Analysis for Pipe Networks                     *
  *                           Version 2.0                              *
  **********************************************************************
  
  Input File: saomamede1.13.1 (calibrado).NET
  
  prueba
  
  Link - Node Table:
  ----------------------------------------------------------------------
  Link           Start          End                Length  Diameter
  ID             Node           Node                    m        mm
  ----------------------------------------------------------------------
  p232           n223           n225                  8.3        81
  p233           n225           n226                154.3        57
  p238           n229           n231                 40.2        57
  p234           n225           n227                 72.3        81
  p237           n229           n230                    8        57
  p230           nv221          n223                 87.2        81
  p235           n227           n228                 26.4        81
  p231           n223           n224                158.9        57
  p236           n227           n229                 37.2        57
  p229           n221           n222                225.2        79
  p283           n273           n275                  114        81
  p286           n277           n278                 63.3        81
  p272           n262           n264                137.3        81
  p270           nv261          n262                233.2        81
  p285           n275           n277                275.7        81
  p280           nv271          n272                 71.4        57
  p279           n269           n271                356.3        81
  p288           nv279          n280                109.5        81
  p275           n266           n267                268.7        81
  p284           nv275          n276                213.2        44
  p287           n277           n279                   16        81
  p271           n262           n263                314.9        81
  p274           n264           n266                571.1        81
  p282           n273           n274                 74.5        57
  p281           n271           n273                360.2        81
  p227           nv219          n220                306.4        79
  p240           n232           n233                129.7        79
  p225           n217           n218               1044.1       141
  p245           n236           n237                253.5        96
  p241           n232           n234                 15.9        96
  p239           nv218'         n232                  144        96
  p247           n237           n239                439.3        96
  p244           nv234          n236                  1.2        96
  p246           n237           n238                143.3        35
  p195           n188           n189                168.2        79
  p273           n264           n265                283.9        81
  p276           n266           n268                  864        79


  Page 2                                                          prueba
  Link - Node Table: (continued)
  ----------------------------------------------------------------------
  Link           Start          End                Length  Diameter
  ID             Node           Node                    m        mm
  ----------------------------------------------------------------------
  p226           nv218          n219                253.2        96
  p228           n219           n221                437.4        79
  p4             n4             n6                  209.1        81
  p7             n8             n9                  517.3        81
  p5             n6             n7                  72.63        81
  p3             n4             n5                  254.2        81
  p6             n6             nv8                   207        81
  p194           nv187          n188                  329        79
  p222           n187           n215                726.8       141
  p259           nv250          n251                 47.8        81
  p260           nv251          n252                451.4        79
  p266           n256           n258                139.9        81
  p277           n261           n269                127.1        81
  p262           n253           n254                 63.2        81
  p263           n253           nv255                 4.9        81
  p261           n251           n253                120.9        81
  p269           n255           n261                172.9        81
  p267           nv258          n259                 13.1        79
  p268           n258           n260                371.2        81
  p265           nv256          n257                100.6        81
  p278           nv269          n270                193.1        81
  p264           nv255'         n256                103.8        81
  p221           n212           nv214                  66        81
  p204           n195           n197                350.7        79
  p213           nv204'         n206                 55.5        79
  p257           n241           nv249                 438        81
  p250           nv241          n242                 41.3        81
  p253           n244           n245                103.3        81
  p249           n240           n241                245.2        81
  p216           nv207'         nv209                48.3        99
  p202           n193           nv195               171.8        79
  p200           nv190'         n193                215.3        79
  p220           nv212          n213                 87.9        57
  p215           n207           nv208               177.5        81
  p254           nv244          n246                144.4        81
  p258           n240           n250                 31.4       113
  p206           nv198          n199                162.4        55
  p251           n242           n243                401.2        81
  p203           nv195'         n196                 85.1        79
  p207           n198           n200                 46.8        79
  p205           nv197          n198                139.7        79
  p218           n210           n211                 78.4        79
  p255           nv246          n247                192.8        81
  p209           n197           nv202               105.2        79
  p211           nv203          n204                 15.6        79
  p219           nv202''        n212                115.1        81
  p217           nv209          nv210                90.7        79


  Page 3                                                          prueba
  Link - Node Table: (continued)
  ----------------------------------------------------------------------
  Link           Start          End                Length  Diameter
  ID             Node           Node                    m        mm
  ----------------------------------------------------------------------
  vs121-209      nv209          n209                  0.1        80
  p256           n246           n248                315.9        81
  p252           n242           n244                 55.1        81
  p212           nv204          n205                 62.7        79
  p170           n157           n165                132.3        79
  p169           nv161'         n164                 98.3        79
  p163           n157           n158                309.5        79
  p171           n165           n166                194.2        79
  p159           n154           n155                    4        79
  p164           n158           nv159               101.3        79
  p181           n175           n176                127.3        81
  p160           nv155          n156                  3.7        79
  p161           nv154          n156                  3.3        79
  p198           nv191          n192                 13.9        79
  p197           nv186'         n191                326.6        79
  p168           n161           n163                  4.1        79
  p182           nv175          n177                144.9        81
  p166           n159           n161                 10.4        79
  p165           nv159'         n160                102.6        79
  p167           nv161          n162                117.8        79
  p199           n192           n190                439.8        79
  p162           n156           n157                 72.9        79
  p183           n174           nv178                94.9        81
  p189           n181           nv183               191.6        81
  p191           n183           nv185               307.6        81
  p188           nv181          n182                  206        81
  p173           nv167          n168                196.6        81
  p176           n167           n171                 90.3        81
  p177           n171           n172                  4.1        79
  p186           n179           n180                204.8        81
  p184           nv178'         nv170                 177        81
  p185           nv170'         n179                  4.5        81
  p179           n171           n174                122.5        81
  p187           n179           n181                 63.8        81
  p174           n168           n169                 79.5        81
  p178           nv172          n173                 75.1        79
  p180           nv174          n175                  567        81
  p190           nv183'         n184                122.4        81
  p175           n168           n170                 95.4        81
  p99            nv95           n96                    37        79
  p97            n92            n94                  41.2        81
  p87            n2             n84                 527.5       144
  p106           nv102          n103                 43.8        79
  p103           nv99           n100                 80.3        79
  p101           nv97           n98                 153.1        79
  p96            n92            n93                  48.5        81
  p94            nv90           n91                    45        81


  Page 4                                                          prueba
  Link - Node Table: (continued)
  ----------------------------------------------------------------------
  Link           Start          End                Length  Diameter
  ID             Node           Node                    m        mm
  ----------------------------------------------------------------------
  p2             n3             n4                  454.2        81
  p98            n89            n95                 361.9       141
  p93            nv89           n90                   6.1        81
  p95            n90            n92                   5.8        81
  p157           n152           n153                 13.1        96
  p92            n88            n89                   159       141
  p1             n1             n3                  513.4        79
  p102           n97            n99                  12.8        79
  p126           nv119          n122                  2.9       141
  p124           nv120'         nv121                 6.5       110
  p100           nv96           n97                  39.1        79
  p155           nv122          n151                192.2        96
  p125           n121           n122                  1.3       141
  p104           n99            n101                 51.6        79
  p122           n118           n119                 52.3       141
  p192           nv153'         n186               1427.3       141
  p105           nv101          n102                 99.2        79
  p156           nv151          n152                498.6        96
  p121           n95            n118                324.6       141
  p158           nv153          n154                402.9        79
  p108           nv101'         n105                 94.3        79
  p172           n165           n167                933.5        79
  p208           nv200          n201                403.5        79
  p201           nv193          n194                153.2        79
  p13            n14            n15                   173        81
  p56            nv55           n56                 310.7        79
  p18            nv19           n20                 46.59        79
  p51            nv14'          n51                 128.8        79
  p59            nv57           n59                 249.1        79
  p15            n15            n17                   1.5        79
  p55            n54            n55                 160.3        79
  p10            nv11           n12                 70.48        81
  p58            n57            n58                 104.5        79
  p57            nv56           n57                 113.6        79
  p14            nv15           n16                 247.7        79
  p20            n22            nv21                162.7        79
  p9             n9             n11                 221.9        81
  p52            nv51           n52                 438.4        79
  p54            nv51'          n54                  41.9        79
  p17            nv18           n19                 65.18        81
  p22            n8             n23                 309.4        81
  p8             n9             nv10                  3.3        81
  p16            n17            n18                 53.45        81
  p53            nv52           n53                 168.2        79
  p19            n19            n21                  17.1        81
  p12            nv11'          nv14                296.3        81
  p35            nv35           n36                   9.2        57


  Page 5                                                          prueba
  Link - Node Table: (continued)
  ----------------------------------------------------------------------
  Link           Start          End                Length  Diameter
  ID             Node           Node                    m        mm
  ----------------------------------------------------------------------
  p61            nv60           n61                  64.3        79
  p78            n78            n73                  98.2        96
  p63            n62            n63                    20        79
  p70            n68            n70                 136.6        67
  p38            n38            n39                   5.7        81
  p72            n71            nv72                  1.8        79
  p26            n25            n27                  90.1        81
  p24            nv24           n25                  57.7        81
  p84            n83            n82                  61.2       144
  p90            n86            n87                     6       144
  p64            n63            n64                 195.3        81
  p21            nv23           nv22                258.6        79
  p118           nv113'         n115                 91.4        79
  p117           nv113          n114                 91.1        79
  p110           n105           n107                 15.9        79
  p75            nv74           n75                  83.9        81
  p28            n27            n29                     5        81
  p41            nv41''         n42                 190.2        81
  p86            n84            n38                   1.5        81
  p119           n115           n116                 35.4        79
  p115           nv111          n112                 94.9        79
  p76            n76            n74                  34.6        81
  p43            nv43           n44                  60.6        79
  p85            n84            nv83                490.7       144
  p32            n31            n33                   353        81
  p47            nv47           n48                  69.3        79
  p116           n111           n113                 27.2        79
  p27            nv27           n28                 113.5        81
  p45            n44            n46                 128.1        79
  p42            nv41''         n43                 227.5        79
  p89            n85            n86                  16.1       144
  p88            nv84           n85                  51.5       113
  p91            nv87           n88                  61.7       144
  p65            nv64           n65                 109.6        81
  p82            nv76           nv80                108.6       144
  p79            nv78           nv79                110.2        81
  p40            n40            n41                  62.6        79
  p39            nv39           n40                  72.5        81
  p80            n80            n78                   6.4        96
  p62            n60            n62                   3.4        81
  p107           nv102'         n104                 29.6        79
  p114           nv107'         n111                 80.3        79
  p34            n34            n35                    56        57
  p31            n31            n32                  84.4        57
  p37            n34            n38                 437.5        81
  p69            n68            n69                  37.1        67
  p68            n64            n68                  48.8        67


  Page 6                                                          prueba
  Link - Node Table: (continued)
  ----------------------------------------------------------------------
  Link           Start          End                Length  Diameter
  ID             Node           Node                    m        mm
  ----------------------------------------------------------------------
  p77            n76            n77                  92.5        81
  p25            nv25           n26                 123.1        79
  p48            n24            n49                   136        81
  p60            nv50''         n60                 253.4        81
  p23            n23            n24                 20.42        81
  p73            n73            n71                   2.2        96
  p30            n29            n31                  38.1        81
  p36            n35            n37                  29.1        57
  p66            nv65           n66                 154.3        67
  p49            nv49           nv50                301.7        81
  p33            nv33           n34                  54.2        81
  p120           n115           n117                 32.6        79
  p109           n105           n106                  2.1        79
  p111           nv107          n108                 76.9        79
  p71            n71            n50                 170.5        96
  p74            n74            nv73                   27        81
  p29            nv29           n30                  76.1        79
  p44            n44            n45                  50.4        79
  p46            n43            n47                   4.6        79
  p83            n82            nv76                160.6       144
  p131           n126           n127                320.5       141
  p147           n142           n143                 29.4        81
  p143           n138           n139                 40.9        81
  p142           nv133''        n138                 41.2        81
  p112           n108           n109                 13.3        79
  p132           nv127          n128                  7.9       141
  p141           n136           n137                102.6        81
  p136           nv131          n132                203.7        81
  p134           nv129'         n130                170.5        81
  p151           n146           n147                212.9        81
  p133           nv128          nv129                63.3        81
  p152           n146           n148                102.8        81
  p139           n134           nv135                  19        81
  p148           n143           n144                 73.6        81
  p138           nv133'         n134                 32.5        81
  p135           n129           n131                 23.5        81
  p150           nv145          n146                134.7        81
  p144           n139           n140                 70.1        81
  p137           n128           nv133                80.4       113
  p140           nv134          n136                  7.1        81
  p145           n139           n141                 81.7        81
  p129           n123           nv125                 191       113
  p146           n138           n142                   16        81
  p113           n108           n110                12.28        79
  p149           n143           n145                 87.7        81
  p153           nv148          n149                 38.8        81
  p154           n148           nv150                27.7        81


  Page 7                                                          prueba
  Link - Node Table: (continued)
  ----------------------------------------------------------------------
  Link           Start          End                Length  Diameter
  ID             Node           Node                    m        mm
  ----------------------------------------------------------------------
  p67            nv65'          n67                 324.5        79
  p193           nv186          n187                439.4       141
  p127           nv120'         n123                497.5       113
  p11            n12            n13                 565.9        79
  p50            n21            nv50'               459.2        81
  p196           nv188          nv190               440.1        79
  p130           nv120          n126               1090.4       141
  p248           n239           n240                593.1        96
  p210           nv202'         n203                137.3        81
  p214           n203           nv207               123.2        81
  p123           n119           n120                  0.9       141
  p223           n215           n216                  2.6       141
  p224           nv216          n217                  2.7       141
  p81            n80            nv81                    1        96
  p242           n234           n235                  1.6        96
  p243           nv235          n236                  1.6        96
  vs2-10         nv10           n10                   0.1        80
  vs1-8          nv8            n8                    0.1        80
  vs3-11         n11            nv11                  0.1        80
  vs4-11         n11            nv11'                 0.1        80
  vs5-14         nv14           n14                   0.1        80
  vs26-14        n14            nv14'                 0.1        80
  vs6-15         n15            nv15                  0.1        80
  vs7-18         n18            nv18                  0.1        80
  vs8-19         n19            nv19                  0.1        80
  vs9-21         nv21           n21                   0.1        80
  vs10-22        nv22           n22                   0.1        80
  vs11-23        n23            nv23                  0.1        80
  vs12-24        n24            nv24                  0.1        80
  vs13-25        n25            nv25                  0.1        80
  vs14-27        n27            nv27                  0.1        80
  vs15-29        n29            nv29                  0.1        80
  vs16-33        n33            nv33                  0.1        80
  vs17-35        n35            nv35                  0.1        63
  vs18-39        n39            nv39                  0.1        80
  vs19-41        n41            nv41                  0.1        80
  vs20-41        nv41'          nv41''                0.1        80
  vs21-43        n43            nv43                  0.1        80
  vs22-47        n47            nv47                  0.1        80
  vs23-49        n49            nv49                  0.1        80
  vs24-50        nv50           n50                   0.1        80
  vs25-50        nv50'          n50                   0.1        80
  vs27-51        n51            nv51                  0.1        80
  vs29-51        n51            nv51'                 0.1        80
  vs28-52        n52            nv52                  0.1        80
  vs30-55        n55            nv55                  0.1        80
  vs31-56        n56            nv56                  0.1        80


  Page 8                                                          prueba
  Link - Node Table: (continued)
  ----------------------------------------------------------------------
  Link           Start          End                Length  Diameter
  ID             Node           Node                    m        mm
  ----------------------------------------------------------------------
  vs32-57        n57            nv57                  0.1        80
  vs33-50        n50            nv50''                0.1        80
  vs34-60        n60            nv60                  0.1        80
  vs35-64        n64            nv64                  0.1        80
  vs36-65        n65            nv65                  0.1        75
  vs37-65        n65            nv65'                 0.1        80
  vs38-72        nv72           n72                   0.1        80
  vs39-73        nv73           n73                   0.1        80
  vs40-74        n74            nv74                  0.1        80
  vs41-76        nv76           n76                   0.1        80
  vs42-78        n78            nv78                  0.1        80
  vs43-79        nv79           n79                   0.1        80
  vs44-81        nv81           n81                   0.1       100
  vs45-80        nv80           n80                   0.1       150
  vs46-84        n84            nv84                  0.1       125
  vs47-87        n87            nv87                  0.1       150
  vs48-89        n89            nv89                  0.1        80
  vs49-90        n90            nv90                  0.1        80
  vs50-95        n95            nv95                  0.1        80
  vs51-97        n97            nv97                  0.1        80
  vs52-99        n99            nv99                  0.1        80
  vs53-101       n101           nv101                 0.1        80
  vs54-102       n102           nv102                 0.1        80
  vs55-102       n102           nv102'                0.1        80
  vs56-101       n101           nv101'                0.1        80
  vs57-107       n107           nv107                 0.1        80
  vs58-107       n107           nv107'                0.1        80
  vs59-111       n111           nv111                 0.1        80
  vs60-113       n113           nv113                 0.1        80
  vs61-113       n113           nv113'                0.1        80
  vs64-119       n119           nv119                 0.1       150
  vs63-121       nv121          n121                  0.1       125
  vs67-120       n120           nv120                 0.1       150
  vs62-120       n120           nv120'                0.1       125
  vs65-123       n123           nv123                 0.1       100
  p128           nv123          n124                 14.1        99
  vs66-125       nv125          n125                  0.1       125
  vs68-128       n128           nv128                 0.1        80
  vs69-129       nv129          n129                  0.1        80
  vs70-129       n129           nv129'                0.1        80
  vs71-131       n131           nv131                 0.1        80
  vs72-133       nv133          n133                  0.1       125
  vs73-133       n133           nv133'                0.1        80
  vs74-135       nv135          n135                  0.1        80
  vs75-134       n134           nv134                 0.1        80
  vs76-133       n133           nv133''               0.1        80
  vs77-142       n142           nv142                 0.1        80


  Page 9                                                          prueba
  Link - Node Table: (continued)
  ----------------------------------------------------------------------
  Link           Start          End                Length  Diameter
  ID             Node           Node                    m        mm
  ----------------------------------------------------------------------
  vs78-145       n145           nv145                 0.1        80
  vs79-148       n148           nv148                 0.1        80
  vs80-150       nv150          n150                  0.1        80
  vs81-151       n151           nv151                 0.1       100
  vs82-153       n153           nv153                 0.1        80
  vs83-154       n154           nv154                 0.1        80
  vs84-159       nv159          n159                  0.1        80
  vs85-159       n159           nv159'                0.1        80
  vs86-161       n161           nv161                 0.1        80
  vs87-161       n161           nv161'                0.1        80
  vs88-167       n167           nv167                 0.1        80
  vs95-170       n170           nv170'                0.1        80
  vs94-170       nv170          n170                  0.1        80
  vs96-181       n181           nv181                 0.1        80
  vs97-183       nv183          n183                  0.1        80
  vs98-183       n183           nv183'                0.1        80
  vs99-185       nv185          n185                  0.1        80
  vs93-178       nv178          nv178'                0.1        80
  vs92-178       nv178          n178                  0.1        80
  vs89-172       n172           nv172                 0.1        80
  vs90-174       n174           nv174                 0.1        80
  vs91-175       n175           nv175                 0.1        80
  vs100-153      n153           nv153'                0.1       150
  vs101-186      n186           nv186                 0.1       150
  vs102-187      n187           nv187                 0.1        80
  vs103-188      n188           nv188                 0.1        80
  vs104-190      nv190          n190                  0.1        80
  vs129-218      n218           nv218'                0.1       100
  vs130-234      n234           nv234                 0.1       100
  vs105-186      n186           nv186'                0.1        80
  vs106-190      n190           nv190'                0.1        80
  vs107-193      n193           nv193                 0.1        80
  vs108-195      nv195          n195                  0.1        80
  vs109-195      n195           nv195'                0.1        80
  vs110-197      n197           nv197                 0.1        80
  vs111-198      n198           nv198                 0.1        63
  vs112-200      n200           nv200                 0.1        80
  vs113-202      nv202          n202                  0.1        80
  vs114-202      n202           nv202'                0.1        80
  vs115-203      n203           nv203                 0.1        80
  vs116-204      n204           nv204                 0.1        80
  vs117-204      n204           nv204'                0.1        80
  vs118-207      nv207          n207                  0.1        80
  vs119-208      nv208          n208                  0.1        80
  vs120-207      n207           nv207'                0.1        80
  vs122-210      nv210          n210                  0.1        80
  vs123-202      n202           nv202''               0.1        80


  Page 10                                                         prueba
  Link - Node Table: (continued)
  ----------------------------------------------------------------------
  Link           Start          End                Length  Diameter
  ID             Node           Node                    m        mm
  ----------------------------------------------------------------------
  vs124-212      n212           nv212                 0.1        63
  vs125-214      nv214          n214                  0.1        80
  vs126-218      n218           nv218                 0.1       100
  vs127-219      n219           nv219                 0.1        80
  vs128-221      n221           nv221                 0.1        80
  vs131-241      n241           nv241                 0.1        80
  vs132-244      n244           nv244                 0.1        80
  vs133-246      n246           nv246                 0.1        80
  vs134-249      nv249          n249                  0.1        80
  vs135-251      n251           nv251                 0.1        80
  vs136-255      nv255          n255                  0.1        80
  vs137-255      n255           nv255'                0.1        80
  vs138-256      n256           nv256                 0.1        80
  vs139-258      n258           nv258                 0.1        80
  vs140-261      n261           nv261                 0.1        80
  vs141-269      n269           nv269                 0.1        80
  vs142-271      n271           nv271                 0.1        80
  vs143-275      n275           nv275                 0.1        50
  vs144-279      n279           nv279                 0.1        80
  vt1            TANK-2         n2                    0.1       160
  vt2            TANK-1         ext1                  0.1        90
  vrp1-41        nv41           nv41'                #N/A        80 Valve
  vrp3-96        n96            nv96                 #N/A        80 Valve
  vrp4-127       n127           nv127                #N/A       150 Valve
  vrp6-155       n155           nv155                #N/A        80 Valve
  vrp-7-191      n191           nv191                #N/A        80 Valve
  vrp8-216       n216           nv216                #N/A       150 Valve
  vrp9-235       n235           nv235                #N/A       100 Valve
  vrp10-250      n250           nv250                #N/A        80 Valve
  vrp2-83        n83            nv83                 #N/A        80 Valve
  vrp5-122       n122           nv122                #N/A       150 Valve
  V1             ext1           n1                   #N/A        80 Valve
  
  Node Results:
  ----------------------------------------------------------------------
  Node                Demand      Head  Pressure   Quality
  ID                     LPS         m         m      mg/L
  ----------------------------------------------------------------------
  n223                  0.02    226.17     66.07      0.00
  n225                  0.01    226.17     64.57      0.00
  n226                  0.02    226.17     67.77      0.00
  n229                  0.01    226.17     58.07      0.00
  n231                  0.01    226.17     62.37      0.00
  n227                  0.01    226.17     56.47      0.00
  n230                  0.01    226.17     58.17      0.00
  n221                  0.18    226.17     79.17      0.00
  n228                  0.00    226.17     55.87      0.00


  Page 11                                                         prueba
  Node Results: (continued)
  ----------------------------------------------------------------------
  Node                Demand      Head  Pressure   Quality
  ID                     LPS         m         m      mg/L
  ----------------------------------------------------------------------
  n224                  0.03    226.17     68.27      0.00
  n222                  0.09    226.17     80.77      0.00
  n273                  0.02    118.17     61.87      0.00
  n275                  0.06    118.17     68.27      0.00
  n277                  0.01    118.17     81.07      0.00
  n278                  0.03    118.17     80.27      0.00
  n262                  0.07    118.16     25.36      0.00
  n264                  0.09    118.11     15.51      0.00
  nv261                 0.00    118.27     19.57      0.00
  n271                  0.03    118.20     43.00      0.00
  n272                  0.03    118.20     36.60      0.00
  n269                  0.12    118.23     28.63      0.00
  n280                  0.07    118.16     78.36      0.00
  nv279                 0.00    118.17     81.07      0.00
  n266                  0.29    117.97      5.07      0.00
  n267                  0.08    117.97     35.77      0.00
  n276                  0.02    118.16     83.16      0.00
  n263                  0.04    118.16     31.46      0.00
  n274                  0.07    118.17     65.67      0.00
  n219                  0.01    226.23     77.73      0.00
  n220                  0.06    226.23     50.83      0.00
  n218                  0.16    226.25     67.35      0.00
  n232                  0.04    225.65     73.65      0.00
  n233                  0.11    225.65     86.35      0.00
  n217                  0.03    227.10      7.00      0.00
  n215                  0.07    282.28     62.08      0.00
  nv216                 0.00    227.10      7.00      0.00
  n237                  0.08    165.21     26.11      0.00
  n236                  0.00    166.19     15.19      0.00
  n234                  0.00    225.59     74.49      0.00
  n239                  0.16    163.59     37.79      0.00
  n238                  0.04    165.20     34.80      0.00
  n188                  0.11    282.88    105.88      0.00
  n189                  0.09    282.88    107.58      0.00
  n265                  0.08    118.10      8.10      0.00
  n268                  0.19    117.94     21.64      0.00
  n187                  0.04    282.90     50.80      0.00
  n4                    0.04    358.84     18.84      0.00
  n6                    0.04    358.01     41.31      0.00
  n9                    0.15    356.89     45.29      0.00
  n8                    0.27    357.23     44.83      0.00
  n7                    0.03    358.01     24.71      0.00
  n5                    0.01    358.84     14.74      0.00
  nv250                 0.00    118.90     10.00      0.00
  n251                  0.06    118.78     10.58      0.00
  n261                  0.07    118.27     19.57      0.00
  nv251                 0.00    118.78     10.58      0.00


  Page 12                                                         prueba
  Node Results: (continued)
  ----------------------------------------------------------------------
  Node                Demand      Head  Pressure   Quality
  ID                     LPS         m         m      mg/L
  ----------------------------------------------------------------------
  n252                  0.07    118.78     24.38      0.00
  n258                  0.03    118.48     21.88      0.00
  n256                  0.02    118.49     19.19      0.00
  n253                  0.06    118.52     12.02      0.00
  n254                  0.02    118.52      8.02      0.00
  n255                  0.00    118.51     12.21      0.00
  n259                  0.09    118.48     21.68      0.00
  n260                  0.16    118.47     28.97      0.00
  n257                  0.09    118.49     18.79      0.00
  n270                  0.18    118.23     34.73      0.00
  n212                  0.04    202.66     93.46      0.00
  n214                  0.06    202.66     99.56      0.00
  n241                  0.12    161.05     48.65      0.00
  n197                  0.12    202.70     84.60      0.00
  n195                  0.05    202.96     64.76      0.00
  n202                  0.05    202.66     88.86      0.00
  n206                  0.02    202.64     89.74      0.00
  n204                  0.01    202.64     90.34      0.00
  n249                  0.13    161.05     58.05      0.00
  n242                  0.04    160.99     44.49      0.00
  n244                  0.08    160.92     41.02      0.00
  n245                  0.05    160.92     43.22      0.00
  n240                  0.03    161.54     52.04      0.00
  n207                  0.15    202.63     97.23      0.00
  nv209                 0.00    202.63    101.33      0.00
  n193                  0.03    203.11     52.01      0.00
  n190                  0.07    203.31     33.11      0.00
  n213                  0.11    202.65     91.55      0.00
  n208                  0.11    202.63    106.83      0.00
  nv244                 0.00    160.92     41.02      0.00
  n246                  1.08    160.75     29.35      0.00
  n198                  0.06    202.69     81.29      0.00
  n199                  0.04    202.69     70.49      0.00
  n243                  0.08    160.99     34.29      0.00
  n196                  0.05    202.96     65.36      0.00
  n200                  0.06    202.69     79.89      0.00
  nv246                 0.00    160.75     29.25      0.00
  n210                  0.01    202.63    106.93      0.00
  n211                  0.03    202.63    109.13      0.00
  n247                  0.20    160.74     17.14      0.00
  nv203                 0.00    202.64     91.64      0.00
  n248                  0.11    160.74     12.54      0.00
  n205                  0.02    202.64     89.54      0.00
  n157                  0.06    218.92     11.22      0.00
  n165                  0.18    218.66     24.46      0.00
  n161                  0.02    218.91     22.71      0.00
  n159                  0.03    218.91     23.91      0.00


  Page 13                                                         prueba
  Node Results: (continued)
  ----------------------------------------------------------------------
  Node                Demand      Head  Pressure   Quality
  ID                     LPS         m         m      mg/L
  ----------------------------------------------------------------------
  n158                  0.03    218.91     21.11      0.00
  n166                  0.03    218.66     50.36      0.00
  n154                  0.00    284.28     70.18      0.00
  n155                  0.00    284.27     70.17      0.00
  n175                  0.08    217.12    101.62      0.00
  n176                  0.08    217.12    102.72      0.00
  n156                  0.00    219.09      4.99      0.00
  nv154                 0.00    219.09      4.99      0.00
  nv191                 0.00    203.80      5.00      0.00
  n192                  0.05    203.78      5.48      0.00
  n191                  0.00    282.92     84.12      0.00
  n186                  0.06    283.30     60.00      0.00
  n163                  0.02    218.91     22.21      0.00
  n201                  0.05    202.69     81.39      0.00
  n177                  0.06    217.12     96.82      0.00
  n160                  0.03    218.91     29.81      0.00
  n162                  0.02    218.91     29.41      0.00
  n174                  0.02    217.14     94.44      0.00
  nv178                 0.00    217.13     97.53      0.00
  n183                  0.20    217.06     69.16      0.00
  n181                  0.17    217.08     64.58      0.00
  n185                  0.05    217.06     80.06      0.00
  n182                  0.22    217.08     86.68      0.00
  n170                  0.10    217.11     71.61      0.00
  n167                  0.00    217.22     87.72      0.00
  n168                  0.10    217.14     69.14      0.00
  n171                  0.00    217.18     89.78      0.00
  nv172                 0.00    217.18     90.38      0.00
  n179                  0.00    217.11     71.21      0.00
  n180                  0.04    217.11     52.21      0.00
  n169                  0.08    217.14     70.84      0.00
  n173                  0.11    217.18     87.78      0.00
  n184                  0.15    217.06     84.46      0.00
  n95                   0.03    354.70     71.70      0.00
  n96                   0.00    354.70     77.19      0.00
  n92                   0.00    355.76     53.46      0.00
  n94                   0.02    355.76     45.46      0.00
  nv89                  0.00    355.76     55.06      0.00
  n89                   0.16    355.76     55.06      0.00
  n2                    0.01    359.25      3.35      0.00
  n84                   0.03    356.93     48.93      0.00
  n102                  0.01    308.49     40.39      0.00
  n103                  0.01    308.49     35.59      0.00
  n99                   0.01    308.50     36.60      0.00
  n100                  0.01    308.50     35.20      0.00
  n153                  0.00    285.25     39.15      0.00
  nv153                 0.00    285.25     39.15      0.00


  Page 14                                                         prueba
  Node Results: (continued)
  ----------------------------------------------------------------------
  Node                Demand      Head  Pressure   Quality
  ID                     LPS         m         m      mg/L
  ----------------------------------------------------------------------
  n97                   0.01    308.50     36.80      0.00
  n98                   0.01    308.50     34.70      0.00
  n93                   0.02    355.76     46.86      0.00
  n91                   0.03    355.76     48.06      0.00
  n90                   0.00    355.76     54.36      0.00
  n3                    0.11    360.70     47.50      0.00
  n152                  0.00    285.43     39.03      0.00
  n88                   0.09    356.24     54.04      0.00
  n1                    0.03    363.28      7.38      0.00
  n119                  0.00    353.64     83.84      0.00
  n120                  0.07    353.64     83.84      0.00
  n121                  0.00    353.63     83.73      0.00
  n122                  0.00    353.63     83.73      0.00
  n101                  0.01    308.50     45.30      0.00
  nv101                 0.00    308.50     45.30      0.00
  nv151                 0.00    292.26     18.96      0.00
  n118                  0.00    353.79     86.19      0.00
  n105                  0.01    308.49     42.39      0.00
  n194                  0.04    203.10     50.40      0.00
  n15                   0.00    356.76     92.16      0.00
  n14                   0.09    356.76     89.26      0.00
  n55                   0.01    356.75     70.85      0.00
  nv56                  0.00    356.74     41.44      0.00
  n19                   0.02    356.76     98.26      0.00
  n20                   0.03    356.76    100.06      0.00
  nv14'                 0.00    356.76     89.26      0.00
  n51                   0.02    356.75     85.45      0.00
  n59                   0.03    356.74     15.94      0.00
  n57                   0.04    356.74     33.74      0.00
  n17                   0.00    356.76     92.16      0.00
  n54                   0.00    356.75     79.55      0.00
  n11                   0.23    356.79     66.49      0.00
  n12                   0.09    356.78     65.38      0.00
  n58                   0.03    356.74     16.64      0.00
  n21                   0.10    356.76     98.56      0.00
  n16                   0.06    356.76     74.36      0.00
  nv22                  0.00    356.78     85.68      0.00
  n52                   0.09    356.74     83.64      0.00
  n18                   0.06    356.76     95.06      0.00
  n23                   0.12    356.84     63.54      0.00
  n10                   0.02    356.89     45.39      0.00
  n53                   0.06    356.74     72.34      0.00
  n35                   0.00    356.86     74.16      0.00
  n36                   0.03    356.86     75.16      0.00
  n65                   0.16    356.50    106.70      0.00
  n60                   0.19    356.60    120.30      0.00
  n61                   0.06    356.60    117.40      0.00


  Page 15                                                         prueba
  Node Results: (continued)
  ----------------------------------------------------------------------
  Node                Demand      Head  Pressure   Quality
  ID                     LPS         m         m      mg/L
  ----------------------------------------------------------------------
  nv78                  0.00    356.83    111.93      0.00
  n78                   0.00    356.83    111.93      0.00
  n73                   0.09    356.82    107.82      0.00
  n62                   0.03    356.60    120.40      0.00
  n63                   0.00    356.59    120.19      0.00
  n68                   0.02    356.51     95.61      0.00
  n70                   0.24    356.49    104.39      0.00
  n38                   0.21    356.93     48.53      0.00
  nv39                  0.00    356.93     49.53      0.00
  n113                  0.01    308.49     27.59      0.00
  n71                   0.00    356.82    107.92      0.00
  n72                   0.03    356.82    108.02      0.00
  n25                   0.04    356.83     58.63      0.00
  n27                   0.00    356.83     56.03      0.00
  nv24                  0.00    356.83     65.33      0.00
  n82                   0.07    356.86     92.76      0.00
  n83                   0.12    356.87     82.17      0.00
  nv41''                0.00    311.60     14.80      0.00
  n86                   0.00    356.43     53.33      0.00
  n87                   0.00    356.42     53.62      0.00
  n50                   0.42    356.76    103.26      0.00
  n64                   0.08    356.51    102.61      0.00
  n115                  0.01    308.49     15.19      0.00
  n114                  0.01    308.49     16.79      0.00
  n107                  0.01    308.49     41.79      0.00
  n74                   0.06    356.83    104.03      0.00
  n75                   0.00    356.83     96.43      0.00
  n29                   0.02    356.83     56.53      0.00
  n42                   0.07    311.60     31.70      0.00
  nv83                  0.00    356.87     82.17      0.00
  nv33                  0.00    356.85     84.25      0.00
  n116                  0.01    308.49     12.89      0.00
  n111                  0.01    308.49     32.79      0.00
  n112                  0.01    308.49     41.89      0.00
  n76                   0.13    356.84    102.14      0.00
  n43                   0.00    311.60     37.70      0.00
  n44                   0.02    311.60     31.10      0.00
  nv41'                 0.00    311.60     15.00      0.00
  n47                   0.02    311.60     38.30      0.00
  nv76                  0.00    356.84    102.14      0.00
  n31                   0.11    356.83     55.83      0.00
  n48                   0.04    311.60     45.60      0.00
  n28                   0.08    356.83     61.53      0.00
  n46                   0.02    311.60     26.10      0.00
  n85                   0.00    356.48     51.68      0.00
  nv64                  0.00    356.51    102.61      0.00
  nv80                  0.00    356.84    112.34      0.00


  Page 16                                                         prueba
  Node Results: (continued)
  ----------------------------------------------------------------------
  Node                Demand      Head  Pressure   Quality
  ID                     LPS         m         m      mg/L
  ----------------------------------------------------------------------
  n79                   0.19    356.83    118.63      0.00
  n40                   0.03    356.93     56.03      0.00
  n41                   0.03    356.92     60.32      0.00
  n80                   0.13    356.84    112.34      0.00
  n104                  0.01    308.49     38.09      0.00
  n34                   0.00    356.86     78.16      0.00
  n32                   0.07    356.83     45.73      0.00
  n69                   0.02    356.51     91.21      0.00
  n77                   0.04    356.84    111.34      0.00
  n26                   0.11    356.83     51.33      0.00
  n49                   0.23    356.80     73.40      0.00
  n24                   0.07    356.83     65.33      0.00
  n37                   0.03    356.86     73.76      0.00
  nv41                  0.00    356.92     60.32      0.00
  n66                   0.12    356.50    123.70      0.00
  n117                  0.00    308.49     17.09      0.00
  n106                  0.01    308.49     42.59      0.00
  n108                  0.01    308.49     49.49      0.00
  nv73                  0.00    356.82    107.82      0.00
  n30                   0.02    356.83     44.33      0.00
  n45                   0.02    311.60     29.50      0.00
  n126                  0.02    353.57     60.87      0.00
  n127                  0.00    353.55     90.95      0.00
  n142                  0.02    286.56     24.16      0.00
  n143                  0.00    286.55     28.05      0.00
  n139                  0.06    286.57     17.97      0.00
  n138                  0.01    286.57     22.77      0.00
  nv133''               0.00    286.59     15.39      0.00
  n129                  0.05    286.60     11.80      0.00
  n109                  0.01    308.49     51.59      0.00
  n128                  0.00    286.60     14.30      0.00
  n136                  0.05    286.59     12.99      0.00
  n137                  0.05    286.59     13.79      0.00
  n132                  0.05    286.60      7.40      0.00
  nv131                 0.00    286.60     15.70      0.00
  n130                  0.05    286.60      5.60      0.00
  n146                  0.15    286.50     46.70      0.00
  n147                  0.16    286.50     49.50      0.00
  n148                  0.07    286.49     53.99      0.00
  n134                  0.01    286.59     13.59      0.00
  n135                  0.01    286.59     13.19      0.00
  n144                  0.05    286.55     31.85      0.00
  n123                  0.06    353.64     96.04      0.00
  n124                  0.00    353.64     95.14      0.00
  n133                  0.02    286.59     14.49      0.00
  n145                  0.09    286.53     33.33      0.00
  n140                  0.04    286.57     18.47      0.00


  Page 17                                                         prueba
  Node Results: (continued)
  ----------------------------------------------------------------------
  Node                Demand      Head  Pressure   Quality
  ID                     LPS         m         m      mg/L
  ----------------------------------------------------------------------
  n141                  0.05    286.57     19.37      0.00
  n125                  0.03    353.64     98.84      0.00
  n110                  0.01    308.49     50.59      0.00
  nv148                 0.00    286.49     53.99      0.00
  n149                  0.09    286.49     53.39      0.00
  n150                  0.06    286.49     55.49      0.00
  n67                   0.08    356.50     97.80      0.00
  n13                   0.20    356.76     29.06      0.00
  n203                  0.00    202.64     91.64      0.00
  nv8                   0.00    357.23     44.83      0.00
  nv10                  0.00    356.89     45.39      0.00
  nv11                  0.00    356.79     66.49      0.00
  nv11'                 0.00    356.79     66.49      0.00
  nv14                  0.00    356.76     89.26      0.00
  nv51                  0.00    356.75     85.45      0.00
  nv51'                 0.00    356.75     85.45      0.00
  nv52                  0.00    356.74     83.64      0.00
  n56                   0.01    356.74     41.44      0.00
  nv57                  0.00    356.74     33.74      0.00
  nv55                  0.00    356.75     70.85      0.00
  nv15                  0.00    356.76     92.16      0.00
  nv18                  0.00    356.76     95.06      0.00
  nv19                  0.00    356.76     98.26      0.00
  nv21                  0.00    356.76     98.56      0.00
  n22                   0.18    356.78     85.68      0.00
  nv23                  0.00    356.84     63.54      0.00
  nv49                  0.00    356.80     73.40      0.00
  nv50                  0.00    356.76    103.26      0.00
  nv50'                 0.00    356.76    103.26      0.00
  nv50''                0.00    356.76    103.26      0.00
  nv60                  0.00    356.60    120.30      0.00
  nv65                  0.00    356.50    106.70      0.00
  nv65'                 0.00    356.50    106.70      0.00
  nv25                  0.00    356.83     58.63      0.00
  nv27                  0.00    356.83     56.03      0.00
  nv29                  0.00    356.83     56.53      0.00
  n33                   0.14    356.85     84.25      0.00
  nv35                  0.00    356.86     74.16      0.00
  n39                   0.22    356.93     49.53      0.00
  nv84                  0.00    356.93     48.93      0.00
  nv72                  0.00    356.82    108.02      0.00
  nv79                  0.00    356.83    118.63      0.00
  n81                   0.03    356.84    112.54      0.00
  nv81                  0.00    356.84    112.54      0.00
  nv74                  0.00    356.83    104.03      0.00
  nv87                  0.00    356.42     53.62      0.00
  nv43                  0.00    311.60     37.70      0.00


  Page 18                                                         prueba
  Node Results: (continued)
  ----------------------------------------------------------------------
  Node                Demand      Head  Pressure   Quality
  ID                     LPS         m         m      mg/L
  ----------------------------------------------------------------------
  nv47                  0.00    311.60     38.30      0.00
  nv90                  0.00    355.76     54.36      0.00
  nv95                  0.00    354.70     71.70      0.00
  nv96                  0.00    308.50     31.00      0.00
  nv97                  0.00    308.50     36.80      0.00
  nv99                  0.00    308.50     36.60      0.00
  nv101'                0.00    308.50     45.30      0.00
  nv102                 0.00    308.49     40.39      0.00
  nv102'                0.00    308.49     40.39      0.00
  nv107'                0.00    308.49     41.79      0.00
  nv107                 0.00    308.49     41.79      0.00
  nv111                 0.00    308.49     32.79      0.00
  nv113                 0.00    308.49     27.59      0.00
  nv113'                0.00    308.49     27.59      0.00
  nv121                 0.00    353.63     83.73      0.00
  nv120                 0.00    353.64     83.84      0.00
  nv119                 0.00    353.64     83.84      0.00
  nv122                 0.00    294.90     33.00      0.00
  nv123                 0.00    353.64     96.04      0.00
  nv125                 0.00    353.64     98.84      0.00
  nv129                 0.00    286.60     11.80      0.00
  nv129'                0.00    286.60     11.80      0.00
  n131                  0.05    286.60     15.70      0.00
  nv128                 0.00    286.60     14.30      0.00
  nv127                 0.00    286.60     24.00      0.00
  nv133                 0.00    286.59     14.49      0.00
  nv133'                0.00    286.59     15.39      0.00
  nv134                 0.00    286.59     13.59      0.00
  nv135                 0.00    286.59     13.19      0.00
  nv142                 0.00    286.56     24.16      0.00
  nv145                 0.00    286.53     33.33      0.00
  nv150                 0.00    286.49     55.49      0.00
  n151                  0.00    292.26     18.96      0.00
  nv153'                0.00    285.25     39.15      0.00
  nv186                 0.00    283.30     60.00      0.00
  nv186'                0.00    283.30     60.00      0.00
  nv155                 0.00    219.10      5.00      0.00
  nv159                 0.00    218.91     23.91      0.00
  nv159'                0.00    218.91     23.91      0.00
  nv161                 0.00    218.91     22.71      0.00
  nv161'                0.00    218.91     22.71      0.00
  n164                  0.00    218.91     20.41      0.00
  nv167                 0.00    217.22     87.72      0.00
  n172                  0.05    217.18     90.38      0.00
  nv174                 0.00    217.14     94.44      0.00
  nv175                 0.00    217.12    101.62      0.00
  nv178'                0.00    217.13     97.53      0.00


  Page 19                                                         prueba
  Node Results: (continued)
  ----------------------------------------------------------------------
  Node                Demand      Head  Pressure   Quality
  ID                     LPS         m         m      mg/L
  ----------------------------------------------------------------------
  nv170                 0.00    217.11     71.61      0.00
  nv170'                0.00    217.11     71.61      0.00
  nv181                 0.00    217.08     64.58      0.00
  nv183'                0.00    217.06     69.16      0.00
  nv183                 0.00    217.06     69.16      0.00
  nv185                 0.00    217.06     80.06      0.00
  nv190                 0.00    282.88    112.68      0.00
  nv190'                0.00    203.31     33.11      0.00
  nv188                 0.00    282.88    105.88      0.00
  nv187                 0.00    282.90     50.80      0.00
  n216                  0.00    282.28     62.18      0.00
  nv218                 0.00    226.25     67.35      0.00
  nv218'                0.00    226.25     67.35      0.00
  nv219                 0.00    226.23     77.73      0.00
  nv235                 0.00    166.20     15.00      0.00
  n235                  0.00    225.59     74.39      0.00
  nv234                 0.00    166.19     15.09      0.00
  nv193                 0.00    203.11     52.01      0.00
  nv195                 0.00    202.96     64.76      0.00
  nv195'                0.00    202.96     64.76      0.00
  nv197                 0.00    202.70     84.60      0.00
  nv198                 0.00    202.69     81.29      0.00
  nv200                 0.00    202.69     79.89      0.00
  nv202                 0.00    202.66     88.86      0.00
  nv202'                0.00    202.66     88.86      0.00
  nv202''               0.00    202.66     88.86      0.00
  nv204                 0.00    202.64     90.34      0.00
  nv204'                0.00    202.64     90.34      0.00
  nv207                 0.00    202.63     97.23      0.00
  nv207'                0.00    202.63     97.23      0.00
  n209                  0.04    202.63    101.33      0.00
  nv210                 0.00    202.63    106.93      0.00
  nv208                 0.00    202.63    106.83      0.00
  nv212                 0.00    202.66     93.46      0.00
  nv214                 0.00    202.66     99.56      0.00
  nv249                 0.00    161.05     58.05      0.00
  nv241                 0.00    161.05     48.65      0.00
  n250                  0.00    161.53     52.63      0.00
  nv255'                0.00    118.50     12.20      0.00
  nv255                 0.00    118.51     12.21      0.00
  nv256                 0.00    118.49     19.19      0.00
  nv258                 0.00    118.48     21.88      0.00
  nv269                 0.00    118.23     28.63      0.00
  nv271                 0.00    118.20     43.00      0.00
  nv275                 0.00    118.17     68.27      0.00
  n279                  0.00    118.17     81.07      0.00
  nv120'                0.00    353.64     83.84      0.00


  Page 20                                                         prueba
  Node Results: (continued)
  ----------------------------------------------------------------------
  Node                Demand      Head  Pressure   Quality
  ID                     LPS         m         m      mg/L
  ----------------------------------------------------------------------
  n178                  0.02    217.13     97.53      0.00
  nv221                 0.00    226.17     79.17      0.00
  ext1                  0.00    363.28      7.38      0.00
  TANK-2              -13.80    359.25      3.35      0.00 Tank
  TANK-1               -2.98    363.28      7.38      0.00 Tank
  
  Link Results:
  ----------------------------------------------------------------------
  Link                  Flow  VelocityUnit Headloss    Status
  ID                     LPS       m/s      m/km
  ----------------------------------------------------------------------
  p232                  0.05      0.01      0.00      Open
  p233                  0.02      0.01      0.01      Open
  p238                  0.01      0.00      0.00      Open
  p234                  0.03      0.01      0.00      Open
  p237                  0.01      0.00      0.00      Open
  p230                  0.09      0.02      0.01      Open
  p235                  0.00      0.00      0.00      Open
  p231                  0.03      0.01      0.01      Open
  p236                  0.02      0.01      0.01      Open
  p229                  0.09      0.02      0.01      Open
  p283                  0.18      0.04      0.02      Open
  p286                  0.03      0.01      0.00      Open
  p272                  0.73      0.14      0.37      Open
  p270                  0.83      0.16      0.47      Open
  p285                  0.11      0.02      0.01      Open
  p280                  0.03      0.01      0.01      Open
  p279                  0.33      0.06      0.10      Open
  p288                  0.07      0.01      0.01      Open
  p275                  0.08      0.02      0.01      Open
  p284                  0.02      0.01      0.02      Open
  p287                  0.07      0.01      0.01      Open
  p271                  0.04      0.01      0.00      Open
  p274                  0.56      0.11      0.24      Open
  p282                  0.07      0.03      0.03      Open
  p281                  0.27      0.05      0.07      Open
  p227                  0.06      0.01      0.01      Open
  p240                  0.11      0.02      0.01      Open
  p225                  5.06      0.32      0.82      Open
  p245                  4.31      0.60      3.88      Open
  p241                  4.31      0.60      3.88      Open
  p239                  4.46      0.62      4.12      Open
  p247                  4.20      0.58      3.69      Open
  p244                  0.00      0.00      0.00      Open
  p246                  0.04      0.04      0.11      Open
  p195                  0.09      0.02      0.01      Open
  p273                  0.08      0.01      0.01      Open


  Page 21                                                         prueba
  Link Results: (continued)
  ----------------------------------------------------------------------
  Link                  Flow  VelocityUnit Headloss    Status
  ID                     LPS       m/s      m/km
  ----------------------------------------------------------------------
  p276                  0.19      0.04      0.03      Open
  p226                  0.44      0.06      0.07      Open
  p228                  0.37      0.08      0.13      Open
  p4                    2.79      0.54      3.97      Open
  p7                    1.00      0.19      0.65      Open
  p5                    0.03      0.01      0.00      Open
  p3                    0.01      0.00      0.00      Open
  p6                    2.71      0.53      3.79      Open
  p194                  0.20      0.04      0.04      Open
  p222                  5.17      0.33      0.85      Open
  p259                  2.13      0.41      2.47      Open
  p260                  0.07      0.01      0.01      Open
  p266                  0.29      0.06      0.08      Open
  p277                  0.63      0.12      0.29      Open
  p262                  0.02      0.00      0.00      Open
  p263                  1.92      0.37      2.05      Open
  p261                  2.00      0.39      2.21      Open
  p269                  1.53      0.30      1.37      Open
  p267                  0.09      0.02      0.01      Open
  p268                  0.16      0.03      0.02      Open
  p265                  0.09      0.02      0.01      Open
  p278                  0.18      0.04      0.02      Open
  p264                  0.39      0.08      0.13      Open
  p221                  0.06      0.01      0.01      Open
  p204                  1.00      0.20      0.74      Open
  p213                  0.02      0.00      0.00      Open
  p257                  0.13      0.03      0.01      Open
  p250                  1.64      0.32      1.55      Open
  p253                  0.05      0.01      0.00      Open
  p249                  1.89      0.37      1.99      Open
  p216                  0.09      0.01      0.00      Open
  p202                  1.09      0.22      0.86      Open
  p200                  1.16      0.24      0.96      Open
  p220                  0.11      0.04      0.05      Open
  p215                  0.11      0.02      0.01      Open
  p254                  1.39      0.27      1.17      Open
  p258                  2.13      0.21      0.50      Open
  p206                  0.04      0.02      0.02      Open
  p251                  0.08      0.02      0.01      Open
  p203                  0.05      0.01      0.01      Open
  p207                  0.10      0.02      0.01      Open
  p205                  0.21      0.04      0.04      Open
  p218                  0.03      0.01      0.00      Open
  p255                  0.20      0.04      0.03      Open
  p209                  0.66      0.14      0.36      Open
  p211                  0.06      0.01      0.01      Open
  p219                  0.21      0.04      0.04      Open


  Page 22                                                         prueba
  Link Results: (continued)
  ----------------------------------------------------------------------
  Link                  Flow  VelocityUnit Headloss    Status
  ID                     LPS       m/s      m/km
  ----------------------------------------------------------------------
  p217                  0.04      0.01      0.00      Open
  vs121-209             0.04      0.01      0.00      Open
  p256                  0.11      0.02      0.01      Open
  p252                  1.52      0.29      1.36      Open
  p212                  0.02      0.00      0.00      Open
  p170                  1.73      0.35      1.94      Open
  p169                  0.00      0.00      0.00      Open
  p163                  0.15      0.03      0.02      Open
  p171                  0.03      0.01      0.00      Open
  p159                  1.95      0.40      2.40      Open
  p164                  0.12      0.02      0.01      Open
  p181                  0.08      0.02      0.01      Open
  p160                  1.95      0.40      2.39      Open
  p161                  0.00      0.00      0.00      Open
  p198                  1.29      0.26      1.16      Open
  p197                  1.29      0.26      1.16      Open
  p168                  0.02      0.00      0.00      Open
  p182                  0.06      0.01      0.01      Open
  p166                  0.06      0.01      0.01      Open
  p165                  0.03      0.01      0.00      Open
  p167                  0.02      0.00      0.00      Open
  p199                  1.23      0.25      1.07      Open
  p162                  1.95      0.40      2.39      Open
  p183                  0.37      0.07      0.12      Open
  p189                  0.40      0.08      0.14      Open
  p191                  0.05      0.01      0.00      Open
  p188                  0.22      0.04      0.04      Open
  p173                  0.75      0.15      0.40      Open
  p176                  0.77      0.15      0.42      Open
  p177                  0.16      0.03      0.02      Open
  p186                  0.04      0.01      0.00      Open
  p184                  0.35      0.07      0.11      Open
  p185                  0.83      0.16      0.47      Open
  p179                  0.61      0.12      0.28      Open
  p187                  0.79      0.15      0.43      Open
  p174                  0.08      0.02      0.01      Open
  p178                  0.11      0.02      0.01      Open
  p180                  0.23      0.04      0.05      Open
  p190                  0.15      0.03      0.02      Open
  p175                  0.58      0.11      0.25      Open
  p99                   0.24      0.05      0.06      Open
  p97                   0.02      0.00      0.00      Open
  p87                  13.80      0.85      4.39      Open
  p106                  0.01      0.00      0.00      Open
  p103                  0.01      0.00      0.00      Open
  p101                  0.01      0.00      0.00      Open
  p96                   0.02      0.00      0.00      Open


  Page 23                                                         prueba
  Link Results: (continued)
  ----------------------------------------------------------------------
  Link                  Flow  VelocityUnit Headloss    Status
  ID                     LPS       m/s      m/km
  ----------------------------------------------------------------------
  p94                   0.03      0.01      0.00      Open
  p2                    2.84      0.55      4.10      Open
  p98                  10.35      0.66      2.93      Open
  p93                   0.08      0.02      0.01      Open
  p95                   0.05      0.01      0.01      Open
  p157                  8.70      1.20     13.71      Open
  p92                  10.58      0.68      3.05      Open
  p1                    2.95      0.60      5.02      Open
  p102                  0.22      0.04      0.05      Open
  p126                  5.24      0.34      2.84      Open
  p124                  3.47      0.36      1.37      Open
  p100                  0.24      0.05      0.06      Open
  p155                  8.70      1.20     13.71      Open
  p125                  3.47      0.22      2.35      Open
  p104                  0.19      0.04      0.03      Open
  p122                 10.08      0.65      2.80      Open
  p192                  6.75      0.43      1.36      Open
  p105                  0.04      0.01      0.00      Open
  p156                  8.70      1.20     13.71      Open
  p121                 10.08      0.65      2.80      Open
  p158                  1.95      0.40      2.39      Open
  p108                  0.14      0.03      0.02      Open
  p172                  1.52      0.31      1.55      Open
  p208                  0.05      0.01      0.00      Open
  p201                  0.04      0.01      0.00      Open
  p13                  -0.07      0.01      0.01      Open
  p56                   0.11      0.02      0.01      Open
  p18                   0.03      0.01      0.00      Open
  p51                   0.29      0.06      0.09      Open
  p59                   0.03      0.01      0.00      Open
  p15                  -0.13      0.03      0.02      Open
  p55                   0.12      0.02      0.01      Open
  p10                   0.28      0.06      0.08      Open
  p58                   0.03      0.01      0.00      Open
  p57                   0.10      0.02      0.01      Open
  p14                   0.06      0.01      0.01      Open
  p20                   0.33      0.07      0.11      Open
  p9                    0.82      0.16      0.47      Open
  p52                   0.14      0.03      0.02      Open
  p54                   0.12      0.03      0.01      Open
  p17                  -0.18      0.04      0.03      Open
  p22                   1.45      0.28      1.25      Open
  p8                    0.02      0.00      0.00      Open
  p16                  -0.13      0.02      0.01      Open
  p53                   0.06      0.01      0.01      Open
  p19                  -0.24      0.05      0.05      Open
  p12                   0.31      0.06      0.09      Open


  Page 24                                                         prueba
  Link Results: (continued)
  ----------------------------------------------------------------------
  Link                  Flow  VelocityUnit Headloss    Status
  ID                     LPS       m/s      m/km
  ----------------------------------------------------------------------
  p35                   0.03      0.01      0.01      Open
  p61                   0.06      0.01      0.01      Open
  p78                   0.61      0.08      0.12      Open
  p63                   0.72      0.15      0.42      Open
  p70                   0.24      0.07      0.14      Open
  p38                   0.47      0.09      0.18      Open
  p72                   0.03      0.01      0.00      Open
  p26                   0.03      0.01      0.00      Open
  p24                   0.18      0.03      0.02      Open
  p84                   1.85      0.11      0.12      Open
  p90                  10.67      0.66      2.77      Open
  p64                   0.72      0.14      0.37      Open
  p21                   0.51      0.10      0.23      Open
  p118                  0.02      0.00      0.00      Open
  p117                  0.01      0.00      0.00      Open
  p110                  0.12      0.02      0.01      Open
  p75                   0.00      0.00      0.00      Open
  p28                  -0.05      0.01      0.00      Open
  p41                   0.07      0.01      0.01      Open
  p86                   1.13      0.22      0.79      Open
  p119                  0.01      0.00      0.00      Open
  p115                  0.01      0.00      0.00      Open
  p76                   0.65      0.13      0.31      Open
  p43                   0.05      0.01      0.01      Open
  p85                   1.96      0.12      0.14      Open
  p32                  -0.26      0.05      0.07      Open
  p47                   0.04      0.01      0.00      Open
  p116                  0.05      0.01      0.01      Open
  p27                   0.08      0.01      0.01      Open
  p45                   0.02      0.00      0.00      Open
  p42                   0.12      0.02      0.01      Open
  p89                  10.67      0.66      2.77      Open
  p88                  10.67      1.06      8.86      Open
  p91                  10.67      0.66      2.77      Open
  p65                   0.37      0.07      0.12      Open
  p82                   0.96      0.06      0.04      Open
  p79                   0.19      0.04      0.03      Open
  p40                   0.21      0.04      0.04      Open
  p39                   0.25      0.05      0.06      Open
  p80                   0.80      0.11      0.20      Open
  p62                   0.75      0.15      0.40      Open
  p107                  0.01      0.00      0.00      Open
  p114                  0.07      0.01      0.01      Open
  p34                   0.05      0.02      0.02      Open
  p31                   0.07      0.03      0.03      Open
  p37                  -0.45      0.09      0.16      Open
  p69                   0.02      0.01      0.00      Open


  Page 25                                                         prueba
  Link Results: (continued)
  ----------------------------------------------------------------------
  Link                  Flow  VelocityUnit Headloss    Status
  ID                     LPS       m/s      m/km
  ----------------------------------------------------------------------
  p68                   0.28      0.08      0.18      Open
  p77                   0.04      0.01      0.00      Open
  p25                   0.11      0.02      0.01      Open
  p48                   0.58      0.11      0.26      Open
  p60                   1.00      0.19      0.65      Open
  p23                   0.82      0.16      0.47      Open
  p73                   1.11      0.15      0.36      Open
  p30                  -0.09      0.02      0.01      Open
  p36                   0.03      0.01      0.01      Open
  p66                   0.12      0.03      0.03      Open
  p49                   0.35      0.07      0.11      Open
  p33                  -0.40      0.08      0.13      Open
  p120                  0.00      0.00      0.00      Open
  p109                  0.01      0.00      0.00      Open
  p111                  0.04      0.01      0.00      Open
  p71                   1.08      0.15      0.34      Open
  p74                   0.59      0.11      0.26      Open
  p29                   0.02      0.00      0.00      Open
  p44                   0.02      0.00      0.00      Open
  p46                   0.06      0.01      0.00      Open
  p83                   1.78      0.11      0.12      Open
  p131                  1.20      0.08      0.06      Open
  p147                  0.67      0.13      0.32      Open
  p143                  0.15      0.03      0.02      Open
  p142                  0.85      0.16      0.49      Open
  p112                  0.01      0.00      0.00      Open
  p132                  1.20      0.08      0.06      Open
  p141                  0.05      0.01      0.01      Open
  p136                  0.05      0.01      0.01      Open
  p134                  0.05      0.01      0.00      Open
  p151                  0.16      0.03      0.02      Open
  p133                  0.20      0.04      0.03      Open
  p152                  0.22      0.04      0.04      Open
  p139                  0.01      0.00      0.00      Open
  p148                  0.05      0.01      0.00      Open
  p138                  0.13      0.03      0.01      Open
  p135                  0.10      0.02      0.01      Open
  p150                  0.53      0.10      0.22      Open
  p144                  0.04      0.01      0.00      Open
  p137                  0.99      0.10      0.13      Open
  p140                  0.10      0.02      0.01      Open
  p145                  0.05      0.01      0.00      Open
  p129                  0.03      0.00      0.00      Open
  p146                  0.69      0.13      0.34      Open
  p113                  0.01      0.00      0.00      Open
  p149                  0.62      0.12      0.29      Open
  p153                  0.09      0.02      0.01      Open


  Page 26                                                         prueba
  Link Results: (continued)
  ----------------------------------------------------------------------
  Link                  Flow  VelocityUnit Headloss    Status
  ID                     LPS       m/s      m/km
  ----------------------------------------------------------------------
  p154                  0.06      0.01      0.01      Open
  p67                   0.08      0.02      0.01      Open
  p193                  5.41      0.35      0.92      Open
  p127                  0.09      0.01      0.00      Open
  p11                   0.20      0.04      0.04      Open
  p50                  -0.01      0.00      0.00      Open
  p196                  0.00      0.00      0.00      Open
  p130                  1.21      0.08      0.07      Open
  p248                  4.04      0.56      3.45      Open
  p210                  0.40      0.08      0.13      Open
  p214                  0.34      0.07      0.10      Open
  p123                  4.84      0.31      0.79      Open
  p223                  5.09      0.33      0.82      Open
  p224                  5.09      0.33      0.83      Open
  p81                   0.03      0.00      0.00      Open
  p242                  4.31      0.60      3.87      Open
  p243                  4.31      0.60      3.87      Open
  vs2-10                0.02      0.00      0.00      Open
  vs1-8                 2.71      0.54      5.21      Open
  vs3-11                0.28      0.06      0.00      Open
  vs4-11                0.31      0.06      0.00      Open
  vs5-14                0.31      0.06      0.37      Open
  vs26-14               0.29      0.06      0.00      Open
  vs6-15                0.06      0.01      0.00      Open
  vs7-18               -0.18      0.04      0.00      Open
  vs8-19                0.03      0.01      0.00      Open
  vs9-21                0.33      0.07      0.00      Open
  vs10-22               0.51      0.10      0.00      Open
  vs11-23               0.51      0.10      0.00      Open
  vs12-24               0.18      0.04      0.00      Open
  vs13-25               0.11      0.02      0.00      Open
  vs14-27               0.08      0.01      0.37      Open
  vs15-29               0.02      0.00      0.00      Open
  vs16-33              -0.40      0.08      0.00      Open
  vs17-35               0.03      0.01      0.00      Open
  vs18-39               0.25      0.05      0.00      Open
  vs19-41               0.18      0.04      0.00      Open
  vs20-41               0.18      0.04      0.00      Open
  vs21-43               0.05      0.01      0.00      Open
  vs22-47               0.04      0.01      0.00      Open
  vs23-49               0.35      0.07      0.00      Open
  vs24-50               0.35      0.07      0.37      Open
  vs25-50              -0.01      0.00      0.00      Open
  vs27-51               0.14      0.03      0.00      Open
  vs29-51               0.12      0.02      0.00      Open
  vs28-52               0.06      0.01      0.00      Open
  vs30-55               0.11      0.02      0.00      Open


  Page 27                                                         prueba
  Link Results: (continued)
  ----------------------------------------------------------------------
  Link                  Flow  VelocityUnit Headloss    Status
  ID                     LPS       m/s      m/km
  ----------------------------------------------------------------------
  vs31-56               0.10      0.02      0.00      Open
  vs32-57               0.03      0.01      0.00      Open
  vs33-50               1.00      0.20      0.74      Open
  vs34-60               0.06      0.01      0.00      Open
  vs35-64               0.37      0.07      0.37      Open
  vs36-65               0.12      0.03      0.00      Open
  vs37-65               0.08      0.02      0.00      Open
  vs38-72               0.03      0.01      0.00      Open
  vs39-73               0.59      0.12      0.00      Open
  vs40-74               0.00      0.00      0.00      Open
  vs41-76               0.82      0.16      0.37      Open
  vs42-78               0.19      0.04      0.00      Open
  vs43-79               0.19      0.04      0.00      Open
  vs44-81               0.03      0.00      0.00      Open
  vs45-80               0.96      0.05      0.00      Open
  vs46-84              10.67      0.87      7.07      Open
  vs47-87              10.67      0.60      2.60      Open
  vs48-89               0.08      0.02      0.00      Open
  vs49-90               0.03      0.01      0.00      Open
  vs50-95               0.24      0.05      0.00      Open
  vs51-97               0.01      0.00      0.00      Open
  vs52-99               0.01      0.00      0.00      Open
  vs53-101              0.04      0.01      0.00      Open
  vs54-102              0.01      0.00      0.00      Open
  vs55-102              0.01      0.00      0.00      Open
  vs56-101              0.14      0.03      0.00      Open
  vs57-107              0.04      0.01      0.00      Open
  vs58-107              0.07      0.01      0.00      Open
  vs59-111              0.01      0.00      0.00      Open
  vs60-113              0.01      0.00      0.00      Open
  vs61-113              0.02      0.00      0.00      Open
  vs64-119              5.24      0.30     45.76      Open
  vs63-121              3.47      0.28      0.74      Open
  vs67-120              1.21      0.07      0.00      Open
  vs62-120              3.56      0.29      0.74      Open
  vs65-123              0.00      0.00      0.00      Open
  p128                  0.00      0.00      0.00      Open
  vs66-125              0.03      0.00      0.00      Open
  vs68-128              0.20      0.04      0.00      Open
  vs69-129              0.20      0.04      0.00      Open
  vs70-129              0.05      0.01      0.00      Open
  vs71-131              0.05      0.01      0.00      Open
  vs72-133              0.99      0.08      0.19      Open
  vs73-133              0.13      0.03      0.00      Open
  vs74-135              0.01      0.00      0.00      Open
  vs75-134              0.10      0.02      0.00      Open
  vs76-133              0.85      0.17      0.56      Open


  Page 28                                                         prueba
  Link Results: (continued)
  ----------------------------------------------------------------------
  Link                  Flow  VelocityUnit Headloss    Status
  ID                     LPS       m/s      m/km
  ----------------------------------------------------------------------
  vs77-142              0.00      0.00      0.00    Closed
  vs78-145              0.53      0.11      0.19      Open
  vs79-148              0.09      0.02      0.00      Open
  vs80-150              0.06      0.01      0.00      Open
  vs81-151              8.70      1.11     14.88      Open
  vs82-153              1.95      0.39      2.60      Open
  vs83-154              0.00      0.00      0.00    Closed
  vs84-159              0.12      0.02      0.00      Open
  vs85-159              0.03      0.01      0.00      Open
  vs86-161              0.02      0.00      0.00      Open
  vs87-161              0.00      0.00      0.00      Open
  vs88-167              0.75      0.15      0.37      Open
  vs95-170              0.83      0.16      0.56      Open
  vs94-170              0.35      0.07      0.19      Open
  vs96-181              0.22      0.04      0.00      Open
  vs97-183              0.40      0.08      0.19      Open
  vs98-183              0.15      0.03      0.00      Open
  vs99-185              0.05      0.01      0.00      Open
  vs93-178              0.35      0.07      0.00      Open
  vs92-178              0.02      0.00      0.00      Open
  vs89-172              0.11      0.02      0.00      Open
  vs90-174              0.23      0.05      0.19      Open
  vs91-175              0.06      0.01      0.00      Open
  vs100-153             6.75      0.38      1.12      Open
  vs101-186             5.41      0.31      0.74      Open
  vs102-187             0.20      0.04      0.00      Open
  vs103-188             0.00      0.00      0.00      Open
  vs104-190             0.00      0.00      0.00    Closed
  vs129-218             4.46      0.57      4.28      Open
  vs130-234             0.00      0.00      0.00    Closed
  vs105-186             1.29      0.26      1.30      Open
  vs106-190             1.16      0.23      0.93      Open
  vs107-193             0.04      0.01      0.00      Open
  vs108-195             1.09      0.22      0.74      Open
  vs109-195             0.05      0.01      0.19      Open
  vs110-197             0.21      0.04      0.00      Open
  vs111-198             0.04      0.01      0.00      Open
  vs112-200             0.05      0.01      0.00      Open
  vs113-202             0.66      0.13      0.37      Open
  vs114-202             0.40      0.08      0.19      Open
  vs115-203             0.06      0.01      0.00      Open
  vs116-204             0.02      0.00      0.00      Open
  vs117-204             0.02      0.00      0.00      Open
  vs118-207             0.34      0.07      0.00      Open
  vs119-208             0.11      0.02      0.00      Open
  vs120-207             0.09      0.02      0.00      Open
  vs122-210             0.04      0.01      0.00      Open


  Page 29                                                         prueba
  Link Results: (continued)
  ----------------------------------------------------------------------
  Link                  Flow  VelocityUnit Headloss    Status
  ID                     LPS       m/s      m/km
  ----------------------------------------------------------------------
  vs123-202             0.21      0.04      0.00      Open
  vs124-212             0.11      0.04      0.00      Open
  vs125-214             0.06      0.01      0.00      Open
  vs126-218             0.44      0.06      0.19      Open
  vs127-219             0.06      0.01      0.00      Open
  vs128-221             0.09      0.02      0.00      Open
  vs131-241             1.64      0.33      2.05      Open
  vs132-244             1.39      0.28      1.49      Open
  vs133-246             0.20      0.04      0.00      Open
  vs134-249             0.13      0.03      0.00      Open
  vs135-251             0.07      0.01      0.00      Open
  vs136-255             1.92      0.38      2.60      Open
  vs137-255             0.39      0.08      0.09      Open
  vs138-256             0.09      0.02      0.00      Open
  vs139-258             0.09      0.02      0.00      Open
  vs140-261             0.83      0.16      0.56      Open
  vs141-269             0.18      0.04      0.00      Open
  vs142-271             0.03      0.01      0.00      Open
  vs143-275             0.02      0.01      0.00      Open
  vs144-279             0.07      0.01      0.00      Open
  vt1                  13.80      0.69      2.60      Open
  vt2                   2.98      0.47      2.60      Open
  vrp1-41               0.18      0.04     45.32    Active Valve
  vrp3-96               0.24      0.05     46.20    Active Valve
  vrp4-127              1.20      0.07     66.95    Active Valve
  vrp6-155              1.95      0.39     65.17    Active Valve
  vrp-7-191             1.29      0.26     79.12    Active Valve
  vrp8-216              5.09      0.29     55.18    Active Valve
  vrp9-235              4.31      0.55     59.39    Active Valve
  vrp10-250             2.13      0.42     42.63    Active Valve
  vrp2-83              -1.96      0.39      0.00      Open Valve
  vrp5-122              8.70      0.49     58.73    Active Valve
  V1                    2.98      0.59      0.00      Open Valve
  
